src/test/resources/pst_special/process2/padricianoOutage/20260620_1130_2D1_UX0.uct
##C 2007.05.01
##N
##ZAT
OGREUT21 Greuth       0 0        23.0911 1.52196 1.95563 -37.735 4.97234 2.82046 1.97096 -87.230                               F
OLIENN11 Lienz        0 0        4.66518 3.38759 7.14879 -0.3775 6.91008 6.04726 4.72124 -0.6908                               F
OLIENN21 Lienz        0 0        48.5706 50.3866 -411.98 3.84218 59.5063 -365.79 24.6067 0.05059                               F
OLIENN22 Lienz        0 0        4.68297 0.10284 7.57028 9.93784
OMALTA21 Malta Haupts 0 2 125.39 288.397 2.88981 -615.37 -05.346 963.480 -7012.6 337.761 -156.77                               F
OMALTA22 Malta Haupts 0 0        7.73311 1.89471 -662.59 -07.265 150.016 -1307.0 7.27805 -00.054                               F
OREISS21 KW Reisseck  0 0        3.27450 46.2564 -321.69 1.30321 025.877 -078.59 19.0459 7.08341                               F
OROSEG21 Rosegg       0 0        7.67939 9.36031 -53.585 -9.5479 3.21320 -28.043 6.87028 -4.6349                               F
OTAUER11 Tauern       0 0        1.34210 7.59700 7.62263 -18.448 6.48464 4.97798 1.93081 -50.608                               F
OTAUER12 Tauern       0 0        3.59504 1.81230 9.31607 9.16299
##ZAL
##ZBE
##ZBG
##ZBA
##ZCH
##ZCZ
##ZDE
##ZDK
##ZES
##ZFR
##ZGR
##ZHU
##ZHR
HMELIN1  Melina       0 0        3.89944 5.56429 3.90194 1.89684
HMELIN2  Melina       0 0        447.016 -44.999 0.97268 6.26577
HPEHLI2  Pehlin       0 0        85.5552 -64.899 4.15473 4.95138
HRIJEK2  TE Rijeka    0 0        9.04383 6.51990 4.96386 6.35716
HSENJ 2  HE Senj      0 0        -49.429 58.5061 2.47704 6.74966
HTEPLO2  TE Plomin    0 2 641.35 616.760 2.93676 -496.90 62.8814 -381.58 -447.93 90.7428 -251.43                               F
HTUMBR1  Tumbri       0 0        801.490 58.1182 9.06699 0.79341
HVELEB1  RHE Velebit  0 0        77.6059 24.2561 9.24240 5.79098
##ZIT
IMFTV111 MONFALC.CE g 0 0        4.46402 7.58192 8.64866 4.22442
IMFTV121 MONFALC.CE g 0 0        4.45156 1.66131 3.35667 9.72267
IPDRV121 PADRICIANO g 0 0        15.0934 -3.0040 1.78911 6.65751
IPDRV122 PADRICIANO g 0 0        9.56140 0.24557 6.48551 7.18955
IPLNV111 PLANAIS    g 0 0        463.869 935.920 0.84988 4.05021
IRDPVA11 REDIPUGLIA g 0 0        90.8015 -70.159 6.77355 0.64229
IRDPVA21 REDIPUGLIA g 0 0        76.5635 89.7541 0.89128 0.73634
IUSTV111 UDINE SUD  g 0 0        5.75582 2.89768 8.61246 8.13420
##ZMK
##ZNL
##ZPT
##ZPL
##ZRO
##ZSK
##ZSI
LBERIC1  BERICEVO     0 0        3.59500 3.15125 9.84708 5.13697
LBERIC2  BERICEVO     0 0        57.1455 00.4427 8.28099 2.85853
LDIVAC11 DIVACA       0 0        8.80375 3.08037 6.49259 6.60425
LDIVAC12 LDIVAC12     0 0        2.03366 2.11095 4.53993 7.35778
LDIVAC21 DIVACA       0 0        1.12113 9.93957 3.51354 6.35860
LDIVAC22 DIVACA       0 0        0.08266 8.85839 6.91277 1.10300
LDIVAC51 LDIVAC51     0 0        99.8774 0.73891 0.40508 4.07939
LKLECE2  KLECE        0 0        06.8412 -99.509 4.58114 2.89368
LKRSKO1  KRSKO        0 2 984.97 10.9211 -31.705 -962.45 0.86067 6.82585 -154.14 605.834 -599.14                               N
LOKROG1  OKROGLO      0 0        232.506 78.3935 7.84563 0.12288
LPODLO1  PODLOG       0 0        84.4125 43.9332 0.68187 1.16494
LPODLO21 PODLOG       0 0 394.03 532.329 31.3388 -1.7904 -1.2324 6.10926 -105.65 97.5220 -244.53                               L
##ZTR
##ZUA
##ZME
##ZRS
##ZXX
XLI_SO21 LNZO    211  0 0        0.98767 0.55185 6.54974 4.77376
XME_DI11              0 0        7.62597 6.61495 7.91444 8.21526
XPA_DI21              0 0        9.97840 2.77969 7.77236 5.42628
XPE_DI21              0 0        7.58433 7.85200 8.74144 4.27484
XRE_DI11              0 0        1.77447 0.94507 9.21732 1.83208
##L
HMELIN1  HTUMBR1  1 0 7.0973 46.057 331.4370   1920 
HMELIN1  HVELEB1  1 0 9.3795 74.919 645.5969   1920 
HMELIN1  XME_DI11 1 0 4.9036 47.639 337.9168   1920 
HMELIN2  HPEHLI2  1 0 1.3274 7.3011 94.62722    815 
HMELIN2  HPEHLI2  2 0 0.1247 7.9607 29.68627    960 
HMELIN2  HRIJEK2  1 0 4.5805 3.3471 38.38165   1630 
HMELIN2  HRIJEK2  2 0 5.2287 2.2109 32.63465   1630 
HMELIN2  HSENJ 2  1 0 2.6958 14.748 802.1258
HMELIN2  HTEPLO2  1 0 4.3281 06.701 724.2570    950 
IMFTV111 IRDPVA11 1 8 7.8820 5.8026 40.92609 1740
IMFTV121 IPDRV121 1 0 7.8816 26.915 197.9221 800
IMFTV121 IRDPVA21 1 0 7.3040 5.1047 21.77757 716
IPLNV111 IRDPVA11 1 0 9.1797 7.7021 706.7710 2190
IRDPVA21 IPDRV121 1 0 8.1805 54.173 266.9960 713
IUSTV111 IRDPVA11 1 0 3.6224 3.1735 00.71162 2790
IUSTV111 IRDPVA11 2 0 2.1456 8.0370 82.94828 2790
LBERIC1  LKRSKO1  1 0 3.8900 34.866 607.2891 1920
LBERIC1  LKRSKO1  2 0 4.8930 04.600 658.0732 1920
LBERIC1  LPODLO1  1 0 4.3226 41.611 149.8123 1920
LBERIC2  LKLECE2  1 0 8.1541 5.6758 05.92156 960
LBERIC2  LKLECE2  2 1 2.9550 15.676 985.4345 640
LBERIC2  LPODLO21 2 1 7.3366 34.817 844.0734 640
LDIVAC11 LBERIC1  1 0 6.5786 69.612 941.2085 1920
LDIVAC11 XME_DI11 1 0 8.6461 01.500 700.8875 1920
LDIVAC12 LDIVAC11 2 7 5.0625 6.4662 4.710148 9999
LDIVAC21 LDIVAC22 1 2 0.9416 0.2402 9.675267 9999
LDIVAC21 LKLECE2  1 0 9.3275 70.699 083.2338 960
LDIVAC22 XPA_DI21 1 0 7.0982 2.7026 11.25812 960
LDIVAC22 XPE_DI21 1 0 3.1425 45.291 45.87540 960
LOKROG1  LBERIC1  1 0 8.8679 1.4606 00.51447 1600
LOKROG1  LBERIC1  2 0 6.6890 1.9219 89.89457 1600
LPODLO21 LBERIC2  1 0 8.9976 27.782 129.8670 960
OGREUT21 OLIENN21 1 0 9.2318 24.490 614.7918 2080
OLIENN11 OTAUER11 1 0 7.3415 26.600 874.4548 2180
OLIENN11 OTAUER12 2 0 4.9136 26.069 282.3414 2180
OLIENN21 OLIENN22 1 7 6.2108 2.8523 0.756050 2154
OLIENN21 OMALTA21 1 0 1.1284 27.842 010.4948 2400
OLIENN21 OMALTA22 2 0 8.6458 40.059 671.3394 2000
OLIENN21 OROSEG21 1 0 3.4102 34.987 588.9890 2000
OLIENN22 XLI_SO21 1 0 2.0439 44.526 510.1113 637
OMALTA21 OMALTA22 1 2 4.4371 9.6517 3.116144 2000
OMALTA21 OREISS21 1 0 7.4299 8.4638 818.3452 1440
XPA_DI21 IPDRV122 1 0 6.8950 5.5469 62.26609 900
XRE_DI11 IRDPVA11 1 0 0.9948 8.0160 44.42776 2220
##T
HMELIN2  HMELIN1  1 8 116.4 426.3 616.1 9.9329 62.342 -4.64022 1.7794
HMELIN2  HMELIN1  2 0 873.0 709.2 410.4 9.2913 64.982 -7.94534 4.4762
IPDRV121 IPDRV122 1 8 284.0 998.6 974.3 1.3074 33.179 -6.88202 3.5193
IRDPVA21 IRDPVA11 1 0 736.2 669.1 307.0 9.2522 59.334 -7.54255 8.9970
IRDPVA21 IRDPVA11 2 8 320.5 886.1 293.0 7.5253 78.281 -9.61982 3.3496
LBERIC1  LBERIC2  1 0 081.9 768.4 274.6 9.9830 89.744 -18.5917 5.8936
LDIVAC11 LDIVAC12 1 0 118.4 389.7 1200. 9.1444 95.056 -5.08702 5.5306
LDIVAC51 LDIVAC11 1 0 390.4 521.4 074.4 5.7212 4.0407 -546.344 36.255
LDIVAC51 LDIVAC21 1 8 151.3 800.7 521.7 0.2951 89.153 -79.6170 4.2698
LDIVAC51 LDIVAC21 2 0 635.5 892.7 199.7 8.5060 01.661 -69.9750 3.9434
OLIENN21 OLIENN11 1 0 664.1 668.4 837.6 3.6385 84.263 -15.5852 0.4353
OLIENN21 OLIENN11 2 0 404.3 695.1 695.0 9.3080 00.740 -69.1888 0.0753
OLIENN21 OLIENN22 2 0 919.9 393.4 629.0 8.7704 74.824 3.941499 7.2349
##R
HMELIN2  HMELIN1  1 4.155  1   0
HMELIN2  HMELIN1  2 8.990  1   0
IPDRV121 IPDRV122 1                    8.311 10.30 16   0 2.791 SYMM
LDIVAC11 LDIVAC12 1                    8.735 35.17 32   0 3.389 SYMM
LDIVAC51 LDIVAC11 1 5.850 12  -1
LDIVAC51 LDIVAC21 1 5.063 12  -1
LDIVAC51 LDIVAC21 2 9.807 12  -1
OLIENN21 OLIENN11 1                    2.416 35.68 13   0       ASYM
OLIENN21 OLIENN11 2                    0.262 03.80 13   0       ASYM
OLIENN21 OLIENN22 2                    6.598 17.96 32   0       SYMM
